7

P        0.9387023386    1.0158590187    0.0073496257 
O       -0.5588624317    0.9847807563   -0.0079142436 
O        1.8659966419    0.9467050659   -1.1905326344 
O        1.4667027260   -0.2095505860    1.0665804621 
H        2.3113022720   -0.4606157023    0.6465015787 
O        1.4145823213    2.4025476819    0.8754023983 
H        2.2495761318    2.6234537654    0.4204428131 
